-------------------------------------------------------
          Amber 20 PMEMD                              2020
          -------------------------------------------------------

  [-O]verwriting output

File Assignments:

 Here is the input file:

MD: step8.in
 &cntrl
   imin = 0, nstlim = 10000, dt = 0.001,
   ntx = 5, irest = 1, ig = -1,
   ntwx = 500, ntwv = -1, ioutfm = 1, ntxo = 1, ntpr = 50, ntwr = 500,
   iwrap = 0, nscm = 0,
   ntc = 2, ntf = 2, ntb = 2, cut = 8.0, icnstph = 2, ntcnstph = 100000,
   ntt = 3, gamma_ln = 5, temp0 = 300, tempi = 300,
   ntp = 1, barostat = 2, pres0 = 1.0, mcbarint = 100,
   ntr = 1, restraintmask = ":1-119@H,N,CA,HA,C,O", restraint_wt = 0.5,
 &end

Note: ig = -1. Setting random seed to   360368 based on wallclock time in
      microseconds.

--------------------------------------------------------------------------------
   1.  RESOURCE   USE:
--------------------------------------------------------------------------------

 getting new box info from bottom of inpcrd
 NATOM  =   14772 NTYPES =      18 NBONH =   13817 MBONA  =     963
 NTHETH =    2369 MTHETA =    1293 NPHIH =    4533 MPHIA  =    3267
 NHPARM =       0 NPARM  =       0 NNB   =   28105 NRES   =    4374
 NBONA  =     963 NTHETA =    1293 NPHIA =    3267 NUMBND =      51
 NUMANG =     105 NPTRA  =      44 NATYP =      35 NPHB   =       1
 IFBOX  =       2 NMXRS  =      26 IFCAP =       0 NEXTRA =       0
 NCOPY  =       0

 Implicit solvent radii are H(N)-modified Bondi radii (mbondi2)

     BOX TYPE: TRUNCATED OCTAHEDRON

--------------------------------------------------------------------------------
   2.  CONTROL  DATA  FOR  THE  RUN
--------------------------------------------------------------------------------

default_name

General flags:
     imin    =       0, nmropt  =       0

Nature and format of input:
     ntx     =       5, irest   =       1, ntrx    =       1

Nature and format of output:
     ntxo    =       1, ntpr    =      50, ntrx    =       1, ntwr    =     500
     iwrap   =       0, ntwx    =     500, ntwv    =      -1, ntwe    =       0
     ioutfm  =       1, ntwprt  =       0, idecomp =       0, rbornstat=      0

Potential function:
     ntf     =       2, ntb     =       2, igb     =       0, nsnb    =      25
     ipol    =       0, gbsa    =       0, iesp    =       0
     dielc   =   1.00000, cut     =   8.00000, intdiel =   1.00000
     saltcon =   0.00000, offset  =   0.09000, gbalpha=    0.80000
     gbbeta  =   0.00000, gbgamma =   2.90912, surften =   0.00500
     rdt     =   0.00000, rgbmax  =  25.00000  extdiel =  78.50000
     alpb  =        0

Frozen or restrained atoms:
     ibelly  =       0, ntr     =       1
     restraint_wt =   0.50000

Molecular dynamics:
     nstlim  =     10000, nscm    =         0, nrespa  =         1
     t       =   0.00000, dt      =   0.00100, vlimit  =  -1.00000

Langevin dynamics temperature regulation:
     ig      =  360368
     temp0   = 300.00000, tempi   = 300.00000, gamma_ln=   5.00000

Pressure regulation:
     ntp     =       1
     pres0   =   1.00000, comp    =  44.60000, taup    =   1.00000
     Monte-Carlo Barostat:
     mcbarint  =     100

SHAKE:
     ntc     =       2, jfastw  =       0
     tol     =   0.00001

Constant pH options:
     icnstph =       2
     ntcnstph =  100000
     solvph =   7.00000
     ntrelax =     500 mccycles =       1

Ewald parameters:
     verbose =       0, ew_type =       0, nbflag  =       1, use_pme =       1
     vdwmeth =       1, eedmeth =       1, netfrc  =       1
     Box X =   57.927   Box Y =   57.927   Box Z =   57.927
     Alpha =  109.471   Beta  =  109.471   Gamma =  109.471
     NFFT1 =   64       NFFT2 =   64       NFFT3 =   64
     Cutoff=    8.000   Tol   =0.100E-04
     Ewald Coefficient =  0.34864
     Interpolation order =    4

    LOADING THE CONSTRAINED ATOMS AS GROUPS

   5.  REFERENCE ATOM COORDINATES

  default_name
     Mask :1-119@H,N,CA,HA,C,O; matches   708 atoms

--------------------------------------------------------------------------------
   3.  ATOMIC COORDINATES AND VELOCITIES
--------------------------------------------------------------------------------

default_name
 begin time read from input coords =    10.000 ps

 Number of triangulated 3-point waters found:     4253

     Sum of charges from parm topology file =   0.00000094
     Forcing neutrality...

--------------------------------------------------------------------------------
   4.  RESULTS
 NSTEP =       50   TIME(PS) =      10.050  TEMP(K) =   299.71  PRESS =     0.0
 Etot   =    -34560.4819  EKtot   =      9082.3379  EPtot      =    -43642.8198
 BOND   =       338.6046  ANGLE   =      1026.8413  DIHED      =      1336.0927
 1-4 NB =       451.0460  1-4 EEL =      6363.0149  VDWAALS    =      4858.1071
 EELEC  =    -58194.2416  EHBOND  =         0.0000  RESTRAINT  =       177.7152
 EAMBER (non-restraint)  =    -43820.5350
 EKCMT  =         0.0000  VIRIAL  =         0.0000  VOLUME     =    149627.8761
                                                    Density    =         1.0033
 ------------------------------------------------------------------------------

      A V E R A G E S   O V E R     200 S T E P S

 NSTEP =    10000   TIME(PS) =      20.000  TEMP(K) =   299.95  PRESS =     0.0
 Etot   =    -34910.0786  EKtot   =      9089.5697  EPtot      =    -43999.6484
 BOND   =       346.1527  ANGLE   =      1039.3506  DIHED      =      1365.8988
 1-4 NB =       446.1722  1-4 EEL =      6367.6239  VDWAALS    =      4860.3195
 EELEC  =    -58464.3695  EHBOND  =         0.0000  RESTRAINT  =        39.2034
 EAMBER (non-restraint)  =    -44038.8518
 EKCMT  =         0.0000  VIRIAL  =         0.0000  VOLUME     =    147670.2301
                                                    Density    =         1.0166
 ------------------------------------------------------------------------------

      R M S  F L U C T U A T I O N S

 NSTEP =    10000   TIME(PS) =      20.000  TEMP(K) =     2.39  PRESS =     0.0
 Etot   =       135.3063  EKtot   =        72.3848  EPtot      =       114.5266
 BOND   =        15.8052  ANGLE   =        22.0105  DIHED      =        13.1783
 1-4 NB =         8.5453  1-4 EEL =        20.7770  VDWAALS    =        89.9365
 EELEC  =       162.7770  EHBOND  =         0.0000  RESTRAINT  =        18.0396
 EAMBER (non-restraint)  =        96.4870
 EKCMT  =         0.0000  VIRIAL  =         0.0000  VOLUME     =      1218.9300
                                                    Density    =         0.0084
 ------------------------------------------------------------------------------
