-------------------------------------------------------
          Amber 20 PMEMD                              2020
          -------------------------------------------------------

  [-O]verwriting output

File Assignments:

 Here is the input file:

MD: step7.in
 &cntrl
   imin = 0, nstlim = 5000, dt = 0.001,
   ntx = 5, irest = 1, ig = -1,
   ntwx = 500, ntwv = -1, ioutfm = 1, ntxo = 1, ntpr = 50, ntwr = 500,
   iwrap = 0, nscm = 0,
   ntc = 2, ntf = 2, ntb = 2, cut = 8.0, icnstph = 2, ntcnstph = 100000,
   ntt = 3, gamma_ln = 5, temp0 = 300, tempi = 300,
   ntp = 1, barostat = 2, pres0 = 1.0, mcbarint = 100,
   ntr = 1, restraintmask = ":1-119&!@H=", restraint_wt = 0.5,
 &end

Note: ig = -1. Setting random seed to   619786 based on wallclock time in
      microseconds.

--------------------------------------------------------------------------------
   1.  RESOURCE   USE:
--------------------------------------------------------------------------------

 getting new box info from bottom of inpcrd
 NATOM  =   14772 NTYPES =      18 NBONH =   13817 MBONA  =     963
 NTHETH =    2369 MTHETA =    1293 NPHIH =    4533 MPHIA  =    3267
 NHPARM =       0 NPARM  =       0 NNB   =   28105 NRES   =    4374
 NBONA  =     963 NTHETA =    1293 NPHIA =    3267 NUMBND =      51
 NUMANG =     105 NPTRA  =      44 NATYP =      35 NPHB   =       1
 IFBOX  =       2 NMXRS  =      26 IFCAP =       0 NEXTRA =       0
 NCOPY  =       0

 Implicit solvent radii are H(N)-modified Bondi radii (mbondi2)

     BOX TYPE: TRUNCATED OCTAHEDRON

--------------------------------------------------------------------------------
   2.  CONTROL  DATA  FOR  THE  RUN
--------------------------------------------------------------------------------

default_name

General flags:
     imin    =       0, nmropt  =       0

Nature and format of input:
     ntx     =       5, irest   =       1, ntrx    =       1

Nature and format of output:
     ntxo    =       1, ntpr    =      50, ntrx    =       1, ntwr    =     500
     iwrap   =       0, ntwx    =     500, ntwv    =      -1, ntwe    =       0
     ioutfm  =       1, ntwprt  =       0, idecomp =       0, rbornstat=      0

Potential function:
     ntf     =       2, ntb     =       2, igb     =       0, nsnb    =      25
     ipol    =       0, gbsa    =       0, iesp    =       0
     dielc   =   1.00000, cut     =   8.00000, intdiel =   1.00000
     saltcon =   0.00000, offset  =   0.09000, gbalpha=    0.80000
     gbbeta  =   0.00000, gbgamma =   2.90912, surften =   0.00500
     rdt     =   0.00000, rgbmax  =  25.00000  extdiel =  78.50000
     alpb  =        0

Frozen or restrained atoms:
     ibelly  =       0, ntr     =       1
     restraint_wt =   0.50000

Molecular dynamics:
     nstlim  =      5000, nscm    =         0, nrespa  =         1
     t       =   0.00000, dt      =   0.00100, vlimit  =  -1.00000

Langevin dynamics temperature regulation:
     ig      =  619786
     temp0   = 300.00000, tempi   = 300.00000, gamma_ln=   5.00000

Pressure regulation:
     ntp     =       1
     pres0   =   1.00000, comp    =  44.60000, taup    =   1.00000
     Monte-Carlo Barostat:
     mcbarint  =     100

SHAKE:
     ntc     =       2, jfastw  =       0
     tol     =   0.00001

Constant pH options:
     icnstph =       2
     ntcnstph =  100000
     solvph =   7.00000
     ntrelax =     500 mccycles =       1

Ewald parameters:
     verbose =       0, ew_type =       0, nbflag  =       1, use_pme =       1
     vdwmeth =       1, eedmeth =       1, netfrc  =       1
     Box X =   58.733   Box Y =   58.733   Box Z =   58.733
     Alpha =  109.471   Beta  =  109.471   Gamma =  109.471
     NFFT1 =   64       NFFT2 =   64       NFFT3 =   64
     Cutoff=    8.000   Tol   =0.100E-04
     Ewald Coefficient =  0.34864
     Interpolation order =    4

    LOADING THE CONSTRAINED ATOMS AS GROUPS

   5.  REFERENCE ATOM COORDINATES

  default_name
     Mask :1-119&!@H=; matches   943 atoms

--------------------------------------------------------------------------------
   3.  ATOMIC COORDINATES AND VELOCITIES
--------------------------------------------------------------------------------

default_name
 begin time read from input coords =     5.000 ps

 Number of triangulated 3-point waters found:     4253

     Sum of charges from parm topology file =   0.00000094
     Forcing neutrality...

--------------------------------------------------------------------------------
   4.  RESULTS
 NSTEP =       50   TIME(PS) =       5.050  TEMP(K) =   297.79  PRESS =     0.0
 Etot   =    -33154.2189  EKtot   =      9024.2344  EPtot      =    -42178.4533
 BOND   =       346.9697  ANGLE   =      1018.1246  DIHED      =      1377.7753
 1-4 NB =       442.0529  1-4 EEL =      6367.5080  VDWAALS    =      4722.9191
 EELEC  =    -57692.6518  EHBOND  =         0.0000  RESTRAINT  =      1238.8489
 EAMBER (non-restraint)  =    -43417.3023
 EKCMT  =         0.0000  VIRIAL  =         0.0000  VOLUME     =    155963.3365
                                                    Density    =         0.9625
 ------------------------------------------------------------------------------

      A V E R A G E S   O V E R     100 S T E P S

 NSTEP =     5000   TIME(PS) =      10.000  TEMP(K) =   301.34  PRESS =     0.0
 Etot   =    -34447.7423  EKtot   =      9131.6722  EPtot      =    -43579.4145
 BOND   =       342.6447  ANGLE   =      1032.5418  DIHED      =      1362.6022
 1-4 NB =       444.9170  1-4 EEL =      6360.7503  VDWAALS    =      4841.7979
 EELEC  =    -58085.8515  EHBOND  =         0.0000  RESTRAINT  =       121.1832
 EAMBER (non-restraint)  =    -43700.5976
 EKCMT  =         0.0000  VIRIAL  =         0.0000  VOLUME     =    151980.1562
                                                    Density    =         0.9879
 ------------------------------------------------------------------------------

      R M S  F L U C T U A T I O N S

 NSTEP =     5000   TIME(PS) =      10.000  TEMP(K) =     2.82  PRESS =     0.0
 Etot   =       373.5459  EKtot   =        85.3982  EPtot      =       328.9283
 BOND   =        16.7156  ANGLE   =        21.7711  DIHED      =        11.6654
 1-4 NB =         9.1999  1-4 EEL =        21.3526  VDWAALS    =       108.9729
 EELEC  =       252.1331  EHBOND  =         0.0000  RESTRAINT  =       193.4610
 EAMBER (non-restraint)  =       135.4673
 EKCMT  =         0.0000  VIRIAL  =         0.0000  VOLUME     =      1838.1629
                                                    Density    =         0.0118
 ------------------------------------------------------------------------------
