-------------------------------------------------------
          Amber 20 PMEMD                              2020
          -------------------------------------------------------

  [-O]verwriting output

File Assignments:

 Here is the input file:

MD: step7.in
 &cntrl
   imin = 0, nstlim = 5000, dt = 0.001,
   ntx = 5, irest = 1, ig = -1,
   ntwx = 500, ntwv = -1, ioutfm = 1, ntxo = 1, ntpr = 50, ntwr = 500,
   iwrap = 0, nscm = 0,
   ntc = 2, ntf = 2, ntb = 2, cut = 8.0, icnstph = 2, ntcnstph = 100000,
   ntt = 3, gamma_ln = 5, temp0 = 300, tempi = 300,
   ntp = 1, barostat = 2, pres0 = 1.0, mcbarint = 100,
   ntr = 1, restraintmask = ":1-119&!@H=", restraint_wt = 0.5,
 &end

Note: ig = -1. Setting random seed to   547766 based on wallclock time in
      microseconds.

--------------------------------------------------------------------------------
   1.  RESOURCE   USE:
--------------------------------------------------------------------------------

 getting new box info from bottom of inpcrd
 NATOM  =   19204 NTYPES =      18 NBONH =   18248 MBONA  =     965
 NTHETH =    2360 MTHETA =    1297 NPHIH =    4513 MPHIA  =    3275
 NHPARM =       0 NPARM  =       0 NNB   =   34006 NRES   =    5852
 NBONA  =     965 NTHETA =    1297 NPHIA =    3275 NUMBND =      54
 NUMANG =     109 NPTRA  =      44 NATYP =      37 NPHB   =       1
 IFBOX  =       2 NMXRS  =      24 IFCAP =       0 NEXTRA =       0
 NCOPY  =       0

 Implicit solvent radii are H(N)-modified Bondi radii (mbondi2)

     BOX TYPE: TRUNCATED OCTAHEDRON

--------------------------------------------------------------------------------
   2.  CONTROL  DATA  FOR  THE  RUN
--------------------------------------------------------------------------------

default_name

General flags:
     imin    =       0, nmropt  =       0

Nature and format of input:
     ntx     =       5, irest   =       1, ntrx    =       1

Nature and format of output:
     ntxo    =       1, ntpr    =      50, ntrx    =       1, ntwr    =     500
     iwrap   =       0, ntwx    =     500, ntwv    =      -1, ntwe    =       0
     ioutfm  =       1, ntwprt  =       0, idecomp =       0, rbornstat=      0

Potential function:
     ntf     =       2, ntb     =       2, igb     =       0, nsnb    =      25
     ipol    =       0, gbsa    =       0, iesp    =       0
     dielc   =   1.00000, cut     =   8.00000, intdiel =   1.00000
     saltcon =   0.00000, offset  =   0.09000, gbalpha=    0.80000
     gbbeta  =   0.00000, gbgamma =   2.90912, surften =   0.00500
     rdt     =   0.00000, rgbmax  =  25.00000  extdiel =  78.50000
     alpb  =        0

Frozen or restrained atoms:
     ibelly  =       0, ntr     =       1
     restraint_wt =   0.50000

Molecular dynamics:
     nstlim  =      5000, nscm    =         0, nrespa  =         1
     t       =   0.00000, dt      =   0.00100, vlimit  =  -1.00000

Langevin dynamics temperature regulation:
     ig      =  547766
     temp0   = 300.00000, tempi   = 300.00000, gamma_ln=   5.00000

Pressure regulation:
     ntp     =       1
     pres0   =   1.00000, comp    =  44.60000, taup    =   1.00000
     Monte-Carlo Barostat:
     mcbarint  =     100

SHAKE:
     ntc     =       2, jfastw  =       0
     tol     =   0.00001

Constant pH options:
     icnstph =       2
     ntcnstph =  100000
     solvph =   7.00000
     ntrelax =     500 mccycles =       1

Ewald parameters:
     verbose =       0, ew_type =       0, nbflag  =       1, use_pme =       1
     vdwmeth =       1, eedmeth =       1, netfrc  =       1
     Box X =   64.079   Box Y =   64.079   Box Z =   64.079
     Alpha =  109.471   Beta  =  109.471   Gamma =  109.471
     NFFT1 =   64       NFFT2 =   64       NFFT3 =   64
     Cutoff=    8.000   Tol   =0.100E-04
     Ewald Coefficient =  0.34864
     Interpolation order =    4

    LOADING THE CONSTRAINED ATOMS AS GROUPS

   5.  REFERENCE ATOM COORDINATES

  default_name
     Mask :1-119&!@H=; matches   943 atoms

--------------------------------------------------------------------------------
   3.  ATOMIC COORDINATES AND VELOCITIES
--------------------------------------------------------------------------------

default_name
 begin time read from input coords =     5.000 ps

 Number of triangulated 3-point waters found:     5731

     Sum of charges from parm topology file =  -0.00000007
     Forcing neutrality...

--------------------------------------------------------------------------------
   4.  RESULTS
 NSTEP =       50   TIME(PS) =       5.050  TEMP(K) =   302.14  PRESS =     0.0
 Etot   =    -44658.4331  EKtot   =     11817.1904  EPtot      =    -56475.6236
 BOND   =       335.0077  ANGLE   =      1042.5519  DIHED      =      1370.6232
 1-4 NB =       431.5328  1-4 EEL =      6419.9297  VDWAALS    =      6933.6596
 EELEC  =    -74095.1440  EHBOND  =         0.0000  RESTRAINT  =      1086.2155
 EAMBER (non-restraint)  =    -57561.8391
 EKCMT  =         0.0000  VIRIAL  =         0.0000  VOLUME     =    202548.5227
                                                    Density    =         0.9596
 ------------------------------------------------------------------------------

      A V E R A G E S   O V E R     100 S T E P S

 NSTEP =     5000   TIME(PS) =      10.000  TEMP(K) =   301.15  PRESS =     0.0
 Etot   =    -45909.3478  EKtot   =     11778.6914  EPtot      =    -57688.0392
 BOND   =       341.0049  ANGLE   =      1035.9825  DIHED      =      1359.6161
 1-4 NB =       449.8813  1-4 EEL =      6442.1906  VDWAALS    =      6892.4443
 EELEC  =    -74316.3921  EHBOND  =         0.0000  RESTRAINT  =       107.2332
 EAMBER (non-restraint)  =    -57795.2725
 EKCMT  =         0.0000  VIRIAL  =         0.0000  VOLUME     =    198471.7978
                                                    Density    =         0.9795
 ------------------------------------------------------------------------------

      R M S  F L U C T U A T I O N S

 NSTEP =     5000   TIME(PS) =      10.000  TEMP(K) =     2.60  PRESS =     0.0
 Etot   =       370.5333  EKtot   =       101.7427  EPtot      =       317.6393
 BOND   =        17.7459  ANGLE   =        21.6023  DIHED      =        13.1064
 1-4 NB =         9.0790  1-4 EEL =        19.7023  VDWAALS    =       178.7805
 EELEC  =       330.1173  EHBOND  =         0.0000  RESTRAINT  =       161.8890
 EAMBER (non-restraint)  =       155.7503
 EKCMT  =         0.0000  VIRIAL  =         0.0000  VOLUME     =      2758.4445
                                                    Density    =         0.0136
 ------------------------------------------------------------------------------
