-------------------------------------------------------
          Amber 20 PMEMD                              2020
          -------------------------------------------------------

  [-O]verwriting output

File Assignments:

 Here is the input file:

MD: step8.in
 &cntrl
   imin = 0, nstlim = 10000, dt = 0.001,
   ntx = 5, irest = 1, ig = -1,
   ntwx = 500, ntwv = -1, ioutfm = 1, ntxo = 1, ntpr = 50, ntwr = 500,
   iwrap = 0, nscm = 0,
   ntc = 2, ntf = 2, ntb = 2, cut = 8.0, icnstph = 2, ntcnstph = 100000,
   ntt = 3, gamma_ln = 5, temp0 = 300, tempi = 300,
   ntp = 1, barostat = 2, pres0 = 1.0, mcbarint = 100,
   ntr = 1, restraintmask = ":1-119@H,N,CA,HA,C,O", restraint_wt = 0.5,
 &end

Note: ig = -1. Setting random seed to    71189 based on wallclock time in
      microseconds.

--------------------------------------------------------------------------------
   1.  RESOURCE   USE:
--------------------------------------------------------------------------------

 getting new box info from bottom of inpcrd
 NATOM  =   19204 NTYPES =      18 NBONH =   18248 MBONA  =     965
 NTHETH =    2360 MTHETA =    1297 NPHIH =    4513 MPHIA  =    3275
 NHPARM =       0 NPARM  =       0 NNB   =   34006 NRES   =    5852
 NBONA  =     965 NTHETA =    1297 NPHIA =    3275 NUMBND =      54
 NUMANG =     109 NPTRA  =      44 NATYP =      37 NPHB   =       1
 IFBOX  =       2 NMXRS  =      24 IFCAP =       0 NEXTRA =       0
 NCOPY  =       0

 Implicit solvent radii are H(N)-modified Bondi radii (mbondi2)

     BOX TYPE: TRUNCATED OCTAHEDRON

--------------------------------------------------------------------------------
   2.  CONTROL  DATA  FOR  THE  RUN
--------------------------------------------------------------------------------

default_name

General flags:
     imin    =       0, nmropt  =       0

Nature and format of input:
     ntx     =       5, irest   =       1, ntrx    =       1

Nature and format of output:
     ntxo    =       1, ntpr    =      50, ntrx    =       1, ntwr    =     500
     iwrap   =       0, ntwx    =     500, ntwv    =      -1, ntwe    =       0
     ioutfm  =       1, ntwprt  =       0, idecomp =       0, rbornstat=      0

Potential function:
     ntf     =       2, ntb     =       2, igb     =       0, nsnb    =      25
     ipol    =       0, gbsa    =       0, iesp    =       0
     dielc   =   1.00000, cut     =   8.00000, intdiel =   1.00000
     saltcon =   0.00000, offset  =   0.09000, gbalpha=    0.80000
     gbbeta  =   0.00000, gbgamma =   2.90912, surften =   0.00500
     rdt     =   0.00000, rgbmax  =  25.00000  extdiel =  78.50000
     alpb  =        0

Frozen or restrained atoms:
     ibelly  =       0, ntr     =       1
     restraint_wt =   0.50000

Molecular dynamics:
     nstlim  =     10000, nscm    =         0, nrespa  =         1
     t       =   0.00000, dt      =   0.00100, vlimit  =  -1.00000

Langevin dynamics temperature regulation:
     ig      =   71189
     temp0   = 300.00000, tempi   = 300.00000, gamma_ln=   5.00000

Pressure regulation:
     ntp     =       1
     pres0   =   1.00000, comp    =  44.60000, taup    =   1.00000
     Monte-Carlo Barostat:
     mcbarint  =     100

SHAKE:
     ntc     =       2, jfastw  =       0
     tol     =   0.00001

Constant pH options:
     icnstph =       2
     ntcnstph =  100000
     solvph =   7.00000
     ntrelax =     500 mccycles =       1

Ewald parameters:
     verbose =       0, ew_type =       0, nbflag  =       1, use_pme =       1
     vdwmeth =       1, eedmeth =       1, netfrc  =       1
     Box X =   63.152   Box Y =   63.152   Box Z =   63.152
     Alpha =  109.471   Beta  =  109.471   Gamma =  109.471
     NFFT1 =   64       NFFT2 =   64       NFFT3 =   64
     Cutoff=    8.000   Tol   =0.100E-04
     Ewald Coefficient =  0.34864
     Interpolation order =    4

    LOADING THE CONSTRAINED ATOMS AS GROUPS

   5.  REFERENCE ATOM COORDINATES

  default_name
     Mask :1-119@H,N,CA,HA,C,O; matches   708 atoms

--------------------------------------------------------------------------------
   3.  ATOMIC COORDINATES AND VELOCITIES
--------------------------------------------------------------------------------

default_name
 begin time read from input coords =    10.000 ps

 Number of triangulated 3-point waters found:     5731

     Sum of charges from parm topology file =  -0.00000007
     Forcing neutrality...

--------------------------------------------------------------------------------
   4.  RESULTS
 NSTEP =       50   TIME(PS) =      10.050  TEMP(K) =   301.63  PRESS =     0.0
 Etot   =    -46088.8239  EKtot   =     11797.1836  EPtot      =    -57886.0075
 BOND   =       326.5131  ANGLE   =      1026.8352  DIHED      =      1352.3474
 1-4 NB =       464.3547  1-4 EEL =      6453.3835  VDWAALS    =      7131.8889
 EELEC  =    -74898.0754  EHBOND  =         0.0000  RESTRAINT  =       256.7451
 EAMBER (non-restraint)  =    -58142.7526
 EKCMT  =         0.0000  VIRIAL  =         0.0000  VOLUME     =    193880.4091
                                                    Density    =         1.0025
 ------------------------------------------------------------------------------

      A V E R A G E S   O V E R     200 S T E P S

 NSTEP =    10000   TIME(PS) =      20.000  TEMP(K) =   299.81  PRESS =     0.0
 Etot   =    -46487.9397  EKtot   =     11726.1437  EPtot      =    -58214.0834
 BOND   =       342.8258  ANGLE   =      1032.5739  DIHED      =      1355.6888
 1-4 NB =       448.6675  1-4 EEL =      6465.3983  VDWAALS    =      7036.0749
 EELEC  =    -74936.8661  EHBOND  =         0.0000  RESTRAINT  =        41.5535
 EAMBER (non-restraint)  =    -58255.6369
 EKCMT  =         0.0000  VIRIAL  =         0.0000  VOLUME     =    192160.3998
                                                    Density    =         1.0115
 ------------------------------------------------------------------------------

      R M S  F L U C T U A T I O N S

 NSTEP =    10000   TIME(PS) =      20.000  TEMP(K) =     2.18  PRESS =     0.0
 Etot   =       168.0943  EKtot   =        85.1183  EPtot      =       142.7481
 BOND   =        15.3720  ANGLE   =        22.3714  DIHED      =        11.6103
 1-4 NB =         8.8149  1-4 EEL =        21.3578  VDWAALS    =       122.3129
 EELEC  =       192.1762  EHBOND  =         0.0000  RESTRAINT  =        25.9971
 EAMBER (non-restraint)  =       116.7510
 EKCMT  =         0.0000  VIRIAL  =         0.0000  VOLUME     =       748.8523
                                                    Density    =         0.0039
 ------------------------------------------------------------------------------
